taskid: 0 hostname: node3
Quilting with   1 groups of   0 I/O tasks.
 Ntasks in X            1, ntasks in Y            1
--- WARNING: traj_opt is zero, but num_traj is not zero; setting num_traj to zero.
--- NOTE: grid_fdda is 0 for domain      1, setting gfdda interval and ending time to 0 for that domain.
--- NOTE: both grid_sfdda and pxlsm_soil_nudge are 0 for domain      1, setting sgfdda interval and ending time to 0 for that domain.
--- NOTE: obs_nudge_opt is 0 for domain      1, setting obs nudging interval and ending time to 0 for that domain.
--- NOTE: bl_pbl_physics /= 4, implies mfshconv must be 0, resetting
Need MYNN PBL for icloud_bl = 1, resetting to 0
--- NOTE: RRTMG radiation is not used, setting:  o3input=0 to avoid data pre-processing
--- NOTE: num_soil_layers has been set to      4
WRF V3.8.1 MODEL
 *************************************
 Parent domain
 ids,ide,jds,jde            1          98           1          70
 ims,ime,jms,jme           -4         103          -4          75
 ips,ipe,jps,jpe            1          98           1          70
 *************************************
DYNAMICS OPTION: Eulerian Mass Coordinate
 alloc_space_field: domain            1,              149206108 bytes allocated
med_initialdata_input: calling input_input
Timing for processing wrfinput file (stream 0) for domain        1:    0.04685 elapsed seconds
Max map factor in domain 1 =  1.19. Scale the dt in the model accordingly.
INPUT LandUse = "USGS"
 LANDUSE TYPE = "USGS" FOUND          33 CATEGORIES           2 SEASONS WATER CATEGORY =           16 SNOW CATEGORY =           24
INITIALIZE THREE Noah LSM RELATED TABLES
 LANDUSE TYPE = USGS FOUND          27 CATEGORIES
 INPUT SOIL TEXTURE CLASSIFICATION = STAS
 SOIL TEXTURE CLASSIFICATION = STAS FOUND          19 CATEGORIES
Timing for Writing wrfout_d01_2005-08-28_00:00:00 for domain        1:    0.14026 elapsed seconds
Input data processed for aux input   4 for domain   1
Timing for processing lateral boundary for domain        1:    0.02287 elapsed seconds
WRF NUMBER OF TILES FROM OMP_GET_MAX_THREADS =  24
 Tile Strategy is not specified. Assuming 1D-Y
WRF TILE   1 IS      1 IE     98 JS      1 JE      3
WRF TILE   2 IS      1 IE     98 JS      4 JE      6
WRF TILE   3 IS      1 IE     98 JS      7 JE      9
WRF TILE   4 IS      1 IE     98 JS     10 JE     12
WRF TILE   5 IS      1 IE     98 JS     13 JE     15
WRF TILE   6 IS      1 IE     98 JS     16 JE     18
WRF TILE   7 IS      1 IE     98 JS     19 JE     21
WRF TILE   8 IS      1 IE     98 JS     22 JE     24
WRF TILE   9 IS      1 IE     98 JS     25 JE     27
WRF TILE  10 IS      1 IE     98 JS     28 JE     30
WRF TILE  11 IS      1 IE     98 JS     31 JE     33
WRF TILE  12 IS      1 IE     98 JS     34 JE     35
WRF TILE  13 IS      1 IE     98 JS     36 JE     37
WRF TILE  14 IS      1 IE     98 JS     38 JE     40
WRF TILE  15 IS      1 IE     98 JS     41 JE     43
WRF TILE  16 IS      1 IE     98 JS     44 JE     46
WRF TILE  17 IS      1 IE     98 JS     47 JE     49
WRF TILE  18 IS      1 IE     98 JS     50 JE     52
WRF TILE  19 IS      1 IE     98 JS     53 JE     55
WRF TILE  20 IS      1 IE     98 JS     56 JE     58
WRF TILE  21 IS      1 IE     98 JS     59 JE     61
WRF TILE  22 IS      1 IE     98 JS     62 JE     64
WRF TILE  23 IS      1 IE     98 JS     65 JE     67
WRF TILE  24 IS      1 IE     98 JS     68 JE     70
WRF NUMBER OF TILES =  24
Timing for main: time 2005-08-28_00:03:00 on domain   1:    0.30207 elapsed seconds
Timing for main: time 2005-08-28_00:06:00 on domain   1:    0.06214 elapsed seconds
Timing for main: time 2005-08-28_00:09:00 on domain   1:    0.06426 elapsed seconds
Timing for main: time 2005-08-28_00:12:00 on domain   1:    0.06531 elapsed seconds
Timing for main: time 2005-08-28_00:15:00 on domain   1:    0.06372 elapsed seconds
Timing for main: time 2005-08-28_00:18:00 on domain   1:    0.06717 elapsed seconds
Timing for main: time 2005-08-28_00:21:00 on domain   1:    0.06269 elapsed seconds
Timing for main: time 2005-08-28_00:24:00 on domain   1:    0.06516 elapsed seconds
Timing for main: time 2005-08-28_00:27:00 on domain   1:    0.06303 elapsed seconds
Timing for main: time 2005-08-28_00:30:00 on domain   1:    0.06510 elapsed seconds
Timing for main: time 2005-08-28_00:33:00 on domain   1:    0.10303 elapsed seconds
Timing for main: time 2005-08-28_00:36:00 on domain   1:    0.05799 elapsed seconds
Timing for main: time 2005-08-28_00:39:00 on domain   1:    0.06437 elapsed seconds
Timing for main: time 2005-08-28_00:42:00 on domain   1:    0.06630 elapsed seconds
Timing for main: time 2005-08-28_00:45:00 on domain   1:    0.06400 elapsed seconds
Timing for main: time 2005-08-28_00:48:00 on domain   1:    0.06592 elapsed seconds
Timing for main: time 2005-08-28_00:51:00 on domain   1:    0.24814 elapsed seconds
Timing for main: time 2005-08-28_00:54:00 on domain   1:    0.06779 elapsed seconds
Timing for main: time 2005-08-28_00:57:00 on domain   1:    0.06543 elapsed seconds
Timing for main: time 2005-08-28_01:00:00 on domain   1:    0.06720 elapsed seconds
Timing for main: time 2005-08-28_01:03:00 on domain   1:    0.10483 elapsed seconds
Timing for main: time 2005-08-28_01:06:00 on domain   1:    0.06267 elapsed seconds
Timing for main: time 2005-08-28_01:09:00 on domain   1:    0.06088 elapsed seconds
Timing for main: time 2005-08-28_01:12:00 on domain   1:    0.06351 elapsed seconds
Timing for main: time 2005-08-28_01:15:00 on domain   1:    0.06419 elapsed seconds
Timing for main: time 2005-08-28_01:18:00 on domain   1:    0.06922 elapsed seconds
Timing for main: time 2005-08-28_01:21:00 on domain   1:    0.06747 elapsed seconds
Timing for main: time 2005-08-28_01:24:00 on domain   1:    0.06808 elapsed seconds
Timing for main: time 2005-08-28_01:27:00 on domain   1:    0.05381 elapsed seconds
Timing for main: time 2005-08-28_01:30:00 on domain   1:    0.05992 elapsed seconds
Timing for main: time 2005-08-28_01:33:00 on domain   1:    0.10308 elapsed seconds
Timing for main: time 2005-08-28_01:36:00 on domain   1:    0.06421 elapsed seconds
Timing for main: time 2005-08-28_01:39:00 on domain   1:    0.05901 elapsed seconds
Timing for main: time 2005-08-28_01:42:00 on domain   1:    0.06376 elapsed seconds
Timing for main: time 2005-08-28_01:45:00 on domain   1:    0.05955 elapsed seconds
Timing for main: time 2005-08-28_01:48:00 on domain   1:    0.04907 elapsed seconds
Timing for main: time 2005-08-28_01:51:00 on domain   1:    0.04709 elapsed seconds
Timing for main: time 2005-08-28_01:54:00 on domain   1:    0.04887 elapsed seconds
Timing for main: time 2005-08-28_01:57:00 on domain   1:    0.04874 elapsed seconds
Timing for main: time 2005-08-28_02:00:00 on domain   1:    0.05093 elapsed seconds
Timing for main: time 2005-08-28_02:03:00 on domain   1:    0.09737 elapsed seconds
Timing for main: time 2005-08-28_02:06:00 on domain   1:    0.05587 elapsed seconds
Timing for main: time 2005-08-28_02:09:00 on domain   1:    0.05401 elapsed seconds
Timing for main: time 2005-08-28_02:12:00 on domain   1:    0.05727 elapsed seconds
Timing for main: time 2005-08-28_02:15:00 on domain   1:    0.06626 elapsed seconds
Timing for main: time 2005-08-28_02:18:00 on domain   1:    0.06897 elapsed seconds
Timing for main: time 2005-08-28_02:21:00 on domain   1:    0.06782 elapsed seconds
Timing for main: time 2005-08-28_02:24:00 on domain   1:    0.24653 elapsed seconds
Timing for main: time 2005-08-28_02:27:00 on domain   1:    0.04153 elapsed seconds
Timing for main: time 2005-08-28_02:30:00 on domain   1:    0.04235 elapsed seconds
Timing for main: time 2005-08-28_02:33:00 on domain   1:    0.08399 elapsed seconds
Timing for main: time 2005-08-28_02:36:00 on domain   1:    0.05425 elapsed seconds
Timing for main: time 2005-08-28_02:39:00 on domain   1:    0.06188 elapsed seconds
Timing for main: time 2005-08-28_02:42:00 on domain   1:    0.06779 elapsed seconds
Timing for main: time 2005-08-28_02:45:00 on domain   1:    0.06565 elapsed seconds
Timing for main: time 2005-08-28_02:48:00 on domain   1:    0.06762 elapsed seconds
Timing for main: time 2005-08-28_02:51:00 on domain   1:    0.04863 elapsed seconds
Timing for main: time 2005-08-28_02:54:00 on domain   1:    0.05015 elapsed seconds
Timing for main: time 2005-08-28_02:57:00 on domain   1:    0.04712 elapsed seconds
Timing for main: time 2005-08-28_03:00:00 on domain   1:    0.04857 elapsed seconds
Timing for Writing wrfout_d01_2005-08-28_03:00:00 for domain        1:    0.02443 elapsed seconds
Timing for main: time 2005-08-28_03:03:00 on domain   1:    0.12063 elapsed seconds
Timing for main: time 2005-08-28_03:06:00 on domain   1:    0.05314 elapsed seconds
Timing for main: time 2005-08-28_03:09:00 on domain   1:    0.05713 elapsed seconds
Timing for main: time 2005-08-28_03:12:00 on domain   1:    0.04994 elapsed seconds
Timing for main: time 2005-08-28_03:15:00 on domain   1:    0.05142 elapsed seconds
Timing for main: time 2005-08-28_03:18:00 on domain   1:    0.05175 elapsed seconds
Timing for main: time 2005-08-28_03:21:00 on domain   1:    0.05109 elapsed seconds
Timing for main: time 2005-08-28_03:24:00 on domain   1:    0.05017 elapsed seconds
Timing for main: time 2005-08-28_03:27:00 on domain   1:    0.05005 elapsed seconds
Timing for main: time 2005-08-28_03:30:00 on domain   1:    0.05252 elapsed seconds
Timing for main: time 2005-08-28_03:33:00 on domain   1:    0.10093 elapsed seconds
Timing for main: time 2005-08-28_03:36:00 on domain   1:    0.06347 elapsed seconds
Timing for main: time 2005-08-28_03:39:00 on domain   1:    0.06137 elapsed seconds
Timing for main: time 2005-08-28_03:42:00 on domain   1:    0.06326 elapsed seconds
Timing for main: time 2005-08-28_03:45:00 on domain   1:    0.05669 elapsed seconds
Timing for main: time 2005-08-28_03:48:00 on domain   1:    0.06130 elapsed seconds
Timing for main: time 2005-08-28_03:51:00 on domain   1:    0.06212 elapsed seconds
Timing for main: time 2005-08-28_03:54:00 on domain   1:    0.06275 elapsed seconds
Timing for main: time 2005-08-28_03:57:00 on domain   1:    0.06231 elapsed seconds
Timing for main: time 2005-08-28_04:00:00 on domain   1:    0.06226 elapsed seconds
Timing for main: time 2005-08-28_04:03:00 on domain   1:    0.28808 elapsed seconds
Timing for main: time 2005-08-28_04:06:00 on domain   1:    0.05175 elapsed seconds
Timing for main: time 2005-08-28_04:09:00 on domain   1:    0.05033 elapsed seconds
Timing for main: time 2005-08-28_04:12:00 on domain   1:    0.05182 elapsed seconds
Timing for main: time 2005-08-28_04:15:00 on domain   1:    0.05297 elapsed seconds
Timing for main: time 2005-08-28_04:18:00 on domain   1:    0.05348 elapsed seconds
Timing for main: time 2005-08-28_04:21:00 on domain   1:    0.05481 elapsed seconds
Timing for main: time 2005-08-28_04:24:00 on domain   1:    0.04717 elapsed seconds
Timing for main: time 2005-08-28_04:27:00 on domain   1:    0.05071 elapsed seconds
Timing for main: time 2005-08-28_04:30:00 on domain   1:    0.04950 elapsed seconds
Timing for main: time 2005-08-28_04:33:00 on domain   1:    0.10668 elapsed seconds
Timing for main: time 2005-08-28_04:36:00 on domain   1:    0.06280 elapsed seconds
Timing for main: time 2005-08-28_04:39:00 on domain   1:    0.07012 elapsed seconds
Timing for main: time 2005-08-28_04:42:00 on domain   1:    0.05517 elapsed seconds
Timing for main: time 2005-08-28_04:45:00 on domain   1:    0.05429 elapsed seconds
Timing for main: time 2005-08-28_04:48:00 on domain   1:    0.05816 elapsed seconds
Timing for main: time 2005-08-28_04:51:00 on domain   1:    0.06126 elapsed seconds
Timing for main: time 2005-08-28_04:54:00 on domain   1:    0.05046 elapsed seconds
Timing for main: time 2005-08-28_04:57:00 on domain   1:    0.05189 elapsed seconds
Timing for main: time 2005-08-28_05:00:00 on domain   1:    0.05565 elapsed seconds
Timing for main: time 2005-08-28_05:03:00 on domain   1:    0.07546 elapsed seconds
Timing for main: time 2005-08-28_05:06:00 on domain   1:    0.04400 elapsed seconds
Timing for main: time 2005-08-28_05:09:00 on domain   1:    0.04428 elapsed seconds
Timing for main: time 2005-08-28_05:12:00 on domain   1:    0.05177 elapsed seconds
Timing for main: time 2005-08-28_05:15:00 on domain   1:    0.04879 elapsed seconds
Timing for main: time 2005-08-28_05:18:00 on domain   1:    0.04941 elapsed seconds
Timing for main: time 2005-08-28_05:21:00 on domain   1:    0.04876 elapsed seconds
Timing for main: time 2005-08-28_05:24:00 on domain   1:    0.05151 elapsed seconds
Timing for main: time 2005-08-28_05:27:00 on domain   1:    0.04990 elapsed seconds
Timing for main: time 2005-08-28_05:30:00 on domain   1:    0.04307 elapsed seconds
Timing for main: time 2005-08-28_05:33:00 on domain   1:    0.09320 elapsed seconds
Timing for main: time 2005-08-28_05:36:00 on domain   1:    0.07044 elapsed seconds
Timing for main: time 2005-08-28_05:39:00 on domain   1:    0.06714 elapsed seconds
Timing for main: time 2005-08-28_05:42:00 on domain   1:    0.06807 elapsed seconds
Timing for main: time 2005-08-28_05:45:00 on domain   1:    0.06803 elapsed seconds
Timing for main: time 2005-08-28_05:48:00 on domain   1:    0.26022 elapsed seconds
Timing for main: time 2005-08-28_05:51:00 on domain   1:    0.06734 elapsed seconds
Timing for main: time 2005-08-28_05:54:00 on domain   1:    0.06597 elapsed seconds
Timing for main: time 2005-08-28_05:57:00 on domain   1:    0.06024 elapsed seconds
Timing for main: time 2005-08-28_06:00:00 on domain   1:    0.06260 elapsed seconds
Timing for Writing wrfout_d01_2005-08-28_06:00:00 for domain        1:    0.02385 elapsed seconds
Input data processed for aux input   4 for domain   1
Timing for processing lateral boundary for domain        1:    0.00851 elapsed seconds
Timing for main: time 2005-08-28_06:03:00 on domain   1:    0.13395 elapsed seconds
Timing for main: time 2005-08-28_06:06:00 on domain   1:    0.06775 elapsed seconds
Timing for main: time 2005-08-28_06:09:00 on domain   1:    0.06517 elapsed seconds
Timing for main: time 2005-08-28_06:12:00 on domain   1:    0.06668 elapsed seconds
Timing for main: time 2005-08-28_06:15:00 on domain   1:    0.06628 elapsed seconds
Timing for main: time 2005-08-28_06:18:00 on domain   1:    0.05862 elapsed seconds
Timing for main: time 2005-08-28_06:21:00 on domain   1:    0.06475 elapsed seconds
Timing for main: time 2005-08-28_06:24:00 on domain   1:    0.06995 elapsed seconds
Timing for main: time 2005-08-28_06:27:00 on domain   1:    0.06704 elapsed seconds
Timing for main: time 2005-08-28_06:30:00 on domain   1:    0.07018 elapsed seconds
Timing for main: time 2005-08-28_06:33:00 on domain   1:    0.09272 elapsed seconds
Timing for main: time 2005-08-28_06:36:00 on domain   1:    0.04851 elapsed seconds
Timing for main: time 2005-08-28_06:39:00 on domain   1:    0.05511 elapsed seconds
Timing for main: time 2005-08-28_06:42:00 on domain   1:    0.05969 elapsed seconds
Timing for main: time 2005-08-28_06:45:00 on domain   1:    0.04306 elapsed seconds
Timing for main: time 2005-08-28_06:48:00 on domain   1:    0.04251 elapsed seconds
Timing for main: time 2005-08-28_06:51:00 on domain   1:    0.04206 elapsed seconds
Timing for main: time 2005-08-28_06:54:00 on domain   1:    0.04385 elapsed seconds
Timing for main: time 2005-08-28_06:57:00 on domain   1:    0.04416 elapsed seconds
Timing for main: time 2005-08-28_07:00:00 on domain   1:    0.04563 elapsed seconds
Timing for main: time 2005-08-28_07:03:00 on domain   1:    0.09346 elapsed seconds
Timing for main: time 2005-08-28_07:06:00 on domain   1:    0.05936 elapsed seconds
Timing for main: time 2005-08-28_07:09:00 on domain   1:    0.05683 elapsed seconds
Timing for main: time 2005-08-28_07:12:00 on domain   1:    0.05879 elapsed seconds
Timing for main: time 2005-08-28_07:15:00 on domain   1:    0.05581 elapsed seconds
Timing for main: time 2005-08-28_07:18:00 on domain   1:    0.05708 elapsed seconds
Timing for main: time 2005-08-28_07:21:00 on domain   1:    0.10070 elapsed seconds
Timing for main: time 2005-08-28_07:24:00 on domain   1:    0.19224 elapsed seconds
Timing for main: time 2005-08-28_07:27:00 on domain   1:    0.04898 elapsed seconds
Timing for main: time 2005-08-28_07:30:00 on domain   1:    0.04852 elapsed seconds
Timing for main: time 2005-08-28_07:33:00 on domain   1:    0.11118 elapsed seconds
Timing for main: time 2005-08-28_07:36:00 on domain   1:    0.05014 elapsed seconds
Timing for main: time 2005-08-28_07:39:00 on domain   1:    0.04704 elapsed seconds
Timing for main: time 2005-08-28_07:42:00 on domain   1:    0.04709 elapsed seconds
Timing for main: time 2005-08-28_07:45:00 on domain   1:    0.04727 elapsed seconds
Timing for main: time 2005-08-28_07:48:00 on domain   1:    0.05273 elapsed seconds
Timing for main: time 2005-08-28_07:51:00 on domain   1:    0.04958 elapsed seconds
Timing for main: time 2005-08-28_07:54:00 on domain   1:    0.05201 elapsed seconds
Timing for main: time 2005-08-28_07:57:00 on domain   1:    0.05070 elapsed seconds
Timing for main: time 2005-08-28_08:00:00 on domain   1:    0.05163 elapsed seconds
Timing for main: time 2005-08-28_08:03:00 on domain   1:    0.08210 elapsed seconds
Timing for main: time 2005-08-28_08:06:00 on domain   1:    0.05123 elapsed seconds
Timing for main: time 2005-08-28_08:09:00 on domain   1:    0.04771 elapsed seconds
Timing for main: time 2005-08-28_08:12:00 on domain   1:    0.04949 elapsed seconds
Timing for main: time 2005-08-28_08:15:00 on domain   1:    0.04906 elapsed seconds
Timing for main: time 2005-08-28_08:18:00 on domain   1:    0.05174 elapsed seconds
Timing for main: time 2005-08-28_08:21:00 on domain   1:    0.05618 elapsed seconds
Timing for main: time 2005-08-28_08:24:00 on domain   1:    0.05639 elapsed seconds
Timing for main: time 2005-08-28_08:27:00 on domain   1:    0.05881 elapsed seconds
Timing for main: time 2005-08-28_08:30:00 on domain   1:    0.06045 elapsed seconds
Timing for main: time 2005-08-28_08:33:00 on domain   1:    0.08478 elapsed seconds
Timing for main: time 2005-08-28_08:36:00 on domain   1:    0.05325 elapsed seconds
Timing for main: time 2005-08-28_08:39:00 on domain   1:    0.05108 elapsed seconds
Timing for main: time 2005-08-28_08:42:00 on domain   1:    0.05375 elapsed seconds
Timing for main: time 2005-08-28_08:45:00 on domain   1:    0.05891 elapsed seconds
Timing for main: time 2005-08-28_08:48:00 on domain   1:    0.06117 elapsed seconds
Timing for main: time 2005-08-28_08:51:00 on domain   1:    0.05860 elapsed seconds
Timing for main: time 2005-08-28_08:54:00 on domain   1:    0.06471 elapsed seconds
Timing for main: time 2005-08-28_08:57:00 on domain   1:    0.05531 elapsed seconds
Timing for main: time 2005-08-28_09:00:00 on domain   1:    0.05482 elapsed seconds
Timing for Writing wrfout_d01_2005-08-28_09:00:00 for domain        1:    0.04181 elapsed seconds
Timing for main: time 2005-08-28_09:03:00 on domain   1:    0.16917 elapsed seconds
Timing for main: time 2005-08-28_09:06:00 on domain   1:    0.21896 elapsed seconds
Timing for main: time 2005-08-28_09:09:00 on domain   1:    0.05776 elapsed seconds
Timing for main: time 2005-08-28_09:12:00 on domain   1:    0.06055 elapsed seconds
Timing for main: time 2005-08-28_09:15:00 on domain   1:    0.05760 elapsed seconds
Timing for main: time 2005-08-28_09:18:00 on domain   1:    0.05952 elapsed seconds
Timing for main: time 2005-08-28_09:21:00 on domain   1:    0.05980 elapsed seconds
Timing for main: time 2005-08-28_09:24:00 on domain   1:    0.05836 elapsed seconds
Timing for main: time 2005-08-28_09:27:00 on domain   1:    0.05826 elapsed seconds
Timing for main: time 2005-08-28_09:30:00 on domain   1:    0.05906 elapsed seconds
Timing for main: time 2005-08-28_09:33:00 on domain   1:    0.09690 elapsed seconds
Timing for main: time 2005-08-28_09:36:00 on domain   1:    0.05018 elapsed seconds
Timing for main: time 2005-08-28_09:39:00 on domain   1:    0.04998 elapsed seconds
Timing for main: time 2005-08-28_09:42:00 on domain   1:    0.05285 elapsed seconds
Timing for main: time 2005-08-28_09:45:00 on domain   1:    0.04986 elapsed seconds
Timing for main: time 2005-08-28_09:48:00 on domain   1:    0.04929 elapsed seconds
Timing for main: time 2005-08-28_09:51:00 on domain   1:    0.04862 elapsed seconds
Timing for main: time 2005-08-28_09:54:00 on domain   1:    0.05027 elapsed seconds
Timing for main: time 2005-08-28_09:57:00 on domain   1:    0.04774 elapsed seconds
Timing for main: time 2005-08-28_10:00:00 on domain   1:    0.05141 elapsed seconds
Timing for main: time 2005-08-28_10:03:00 on domain   1:    0.07301 elapsed seconds
Timing for main: time 2005-08-28_10:06:00 on domain   1:    0.04474 elapsed seconds
Timing for main: time 2005-08-28_10:09:00 on domain   1:    0.04264 elapsed seconds
Timing for main: time 2005-08-28_10:12:00 on domain   1:    0.04320 elapsed seconds
Timing for main: time 2005-08-28_10:15:00 on domain   1:    0.04855 elapsed seconds
Timing for main: time 2005-08-28_10:18:00 on domain   1:    0.06530 elapsed seconds
Timing for main: time 2005-08-28_10:21:00 on domain   1:    0.05303 elapsed seconds
Timing for main: time 2005-08-28_10:24:00 on domain   1:    0.05846 elapsed seconds
Timing for main: time 2005-08-28_10:27:00 on domain   1:    0.06281 elapsed seconds
Timing for main: time 2005-08-28_10:30:00 on domain   1:    0.06169 elapsed seconds
Timing for main: time 2005-08-28_10:33:00 on domain   1:    0.08739 elapsed seconds
Timing for main: time 2005-08-28_10:36:00 on domain   1:    0.05113 elapsed seconds
Timing for main: time 2005-08-28_10:39:00 on domain   1:    0.04781 elapsed seconds
Timing for main: time 2005-08-28_10:42:00 on domain   1:    0.04666 elapsed seconds
Timing for main: time 2005-08-28_10:45:00 on domain   1:    0.05657 elapsed seconds
Timing for main: time 2005-08-28_10:48:00 on domain   1:    0.06163 elapsed seconds
Timing for main: time 2005-08-28_10:51:00 on domain   1:    0.23981 elapsed seconds
Timing for main: time 2005-08-28_10:54:00 on domain   1:    0.05981 elapsed seconds
Timing for main: time 2005-08-28_10:57:00 on domain   1:    0.05451 elapsed seconds
Timing for main: time 2005-08-28_11:00:00 on domain   1:    0.06313 elapsed seconds
Timing for main: time 2005-08-28_11:03:00 on domain   1:    0.10506 elapsed seconds
Timing for main: time 2005-08-28_11:06:00 on domain   1:    0.06469 elapsed seconds
Timing for main: time 2005-08-28_11:09:00 on domain   1:    0.04687 elapsed seconds
Timing for main: time 2005-08-28_11:12:00 on domain   1:    0.06235 elapsed seconds
Timing for main: time 2005-08-28_11:15:00 on domain   1:    0.07097 elapsed seconds
Timing for main: time 2005-08-28_11:18:00 on domain   1:    0.07444 elapsed seconds
Timing for main: time 2005-08-28_11:21:00 on domain   1:    0.06966 elapsed seconds
Timing for main: time 2005-08-28_11:24:00 on domain   1:    0.05800 elapsed seconds
Timing for main: time 2005-08-28_11:27:00 on domain   1:    0.05814 elapsed seconds
Timing for main: time 2005-08-28_11:30:00 on domain   1:    0.05654 elapsed seconds
Timing for main: time 2005-08-28_11:33:00 on domain   1:    0.10361 elapsed seconds
Timing for main: time 2005-08-28_11:36:00 on domain   1:    0.05668 elapsed seconds
Timing for main: time 2005-08-28_11:39:00 on domain   1:    0.05554 elapsed seconds
Timing for main: time 2005-08-28_11:42:00 on domain   1:    0.05724 elapsed seconds
Timing for main: time 2005-08-28_11:45:00 on domain   1:    0.05759 elapsed seconds
Timing for main: time 2005-08-28_11:48:00 on domain   1:    0.05902 elapsed seconds
Timing for main: time 2005-08-28_11:51:00 on domain   1:    0.05668 elapsed seconds
Timing for main: time 2005-08-28_11:54:00 on domain   1:    0.05906 elapsed seconds
Timing for main: time 2005-08-28_11:57:00 on domain   1:    0.05965 elapsed seconds
Timing for main: time 2005-08-28_12:00:00 on domain   1:    0.05790 elapsed seconds
Timing for Writing wrfout_d01_2005-08-28_12:00:00 for domain        1:    0.02359 elapsed seconds
Input data processed for aux input   4 for domain   1
Timing for processing lateral boundary for domain        1:    0.00549 elapsed seconds
Timing for main: time 2005-08-28_12:03:00 on domain   1:    0.13967 elapsed seconds
Timing for main: time 2005-08-28_12:06:00 on domain   1:    0.05751 elapsed seconds
Timing for main: time 2005-08-28_12:09:00 on domain   1:    0.05415 elapsed seconds
Timing for main: time 2005-08-28_12:12:00 on domain   1:    0.05569 elapsed seconds
Timing for main: time 2005-08-28_12:15:00 on domain   1:    0.05448 elapsed seconds
Timing for main: time 2005-08-28_12:18:00 on domain   1:    0.05677 elapsed seconds
Timing for main: time 2005-08-28_12:21:00 on domain   1:    0.05915 elapsed seconds
Timing for main: time 2005-08-28_12:24:00 on domain   1:    0.13214 elapsed seconds
Timing for main: time 2005-08-28_12:27:00 on domain   1:    0.15094 elapsed seconds
Timing for main: time 2005-08-28_12:30:00 on domain   1:    0.05875 elapsed seconds
Timing for main: time 2005-08-28_12:33:00 on domain   1:    0.10417 elapsed seconds
Timing for main: time 2005-08-28_12:36:00 on domain   1:    0.05609 elapsed seconds
Timing for main: time 2005-08-28_12:39:00 on domain   1:    0.05418 elapsed seconds
Timing for main: time 2005-08-28_12:42:00 on domain   1:    0.05599 elapsed seconds
Timing for main: time 2005-08-28_12:45:00 on domain   1:    0.05650 elapsed seconds
Timing for main: time 2005-08-28_12:48:00 on domain   1:    0.05609 elapsed seconds
Timing for main: time 2005-08-28_12:51:00 on domain   1:    0.05919 elapsed seconds
Timing for main: time 2005-08-28_12:54:00 on domain   1:    0.06467 elapsed seconds
Timing for main: time 2005-08-28_12:57:00 on domain   1:    0.06030 elapsed seconds
Timing for main: time 2005-08-28_13:00:00 on domain   1:    0.05882 elapsed seconds
Timing for main: time 2005-08-28_13:03:00 on domain   1:    0.11889 elapsed seconds
Timing for main: time 2005-08-28_13:06:00 on domain   1:    0.06007 elapsed seconds
Timing for main: time 2005-08-28_13:09:00 on domain   1:    0.06549 elapsed seconds
Timing for main: time 2005-08-28_13:12:00 on domain   1:    0.06396 elapsed seconds
Timing for main: time 2005-08-28_13:15:00 on domain   1:    0.06442 elapsed seconds
Timing for main: time 2005-08-28_13:18:00 on domain   1:    0.05788 elapsed seconds
Timing for main: time 2005-08-28_13:21:00 on domain   1:    0.06335 elapsed seconds
Timing for main: time 2005-08-28_13:24:00 on domain   1:    0.06880 elapsed seconds
Timing for main: time 2005-08-28_13:27:00 on domain   1:    0.06186 elapsed seconds
Timing for main: time 2005-08-28_13:30:00 on domain   1:    0.06354 elapsed seconds
Timing for main: time 2005-08-28_13:33:00 on domain   1:    0.10386 elapsed seconds
Timing for main: time 2005-08-28_13:36:00 on domain   1:    0.05673 elapsed seconds
Timing for main: time 2005-08-28_13:39:00 on domain   1:    0.05886 elapsed seconds
Timing for main: time 2005-08-28_13:42:00 on domain   1:    0.05958 elapsed seconds
Timing for main: time 2005-08-28_13:45:00 on domain   1:    0.06748 elapsed seconds
Timing for main: time 2005-08-28_13:48:00 on domain   1:    0.06415 elapsed seconds
Timing for main: time 2005-08-28_13:51:00 on domain   1:    0.05399 elapsed seconds
Timing for main: time 2005-08-28_13:54:00 on domain   1:    0.06780 elapsed seconds
Timing for main: time 2005-08-28_13:57:00 on domain   1:    0.10251 elapsed seconds
Timing for main: time 2005-08-28_14:00:00 on domain   1:    0.16877 elapsed seconds
Timing for main: time 2005-08-28_14:03:00 on domain   1:    0.09881 elapsed seconds
Timing for main: time 2005-08-28_14:06:00 on domain   1:    0.05883 elapsed seconds
Timing for main: time 2005-08-28_14:09:00 on domain   1:    0.05547 elapsed seconds
Timing for main: time 2005-08-28_14:12:00 on domain   1:    0.05995 elapsed seconds
Timing for main: time 2005-08-28_14:15:00 on domain   1:    0.05498 elapsed seconds
Timing for main: time 2005-08-28_14:18:00 on domain   1:    0.06038 elapsed seconds
Timing for main: time 2005-08-28_14:21:00 on domain   1:    0.05447 elapsed seconds
Timing for main: time 2005-08-28_14:24:00 on domain   1:    0.05649 elapsed seconds
Timing for main: time 2005-08-28_14:27:00 on domain   1:    0.05714 elapsed seconds
Timing for main: time 2005-08-28_14:30:00 on domain   1:    0.05723 elapsed seconds
Timing for main: time 2005-08-28_14:33:00 on domain   1:    0.10875 elapsed seconds
Timing for main: time 2005-08-28_14:36:00 on domain   1:    0.06573 elapsed seconds
Timing for main: time 2005-08-28_14:39:00 on domain   1:    0.06281 elapsed seconds
Timing for main: time 2005-08-28_14:42:00 on domain   1:    0.06489 elapsed seconds
Timing for main: time 2005-08-28_14:45:00 on domain   1:    0.06216 elapsed seconds
Timing for main: time 2005-08-28_14:48:00 on domain   1:    0.05633 elapsed seconds
Timing for main: time 2005-08-28_14:51:00 on domain   1:    0.05435 elapsed seconds
Timing for main: time 2005-08-28_14:54:00 on domain   1:    0.05680 elapsed seconds
Timing for main: time 2005-08-28_14:57:00 on domain   1:    0.05367 elapsed seconds
Timing for main: time 2005-08-28_15:00:00 on domain   1:    0.05923 elapsed seconds
Timing for Writing wrfout_d01_2005-08-28_15:00:00 for domain        1:    0.02338 elapsed seconds
Timing for main: time 2005-08-28_15:03:00 on domain   1:    0.13708 elapsed seconds
Timing for main: time 2005-08-28_15:06:00 on domain   1:    0.06610 elapsed seconds
Timing for main: time 2005-08-28_15:09:00 on domain   1:    0.08027 elapsed seconds
Timing for main: time 2005-08-28_15:12:00 on domain   1:    0.06501 elapsed seconds
Timing for main: time 2005-08-28_15:15:00 on domain   1:    0.06491 elapsed seconds
Timing for main: time 2005-08-28_15:18:00 on domain   1:    0.07861 elapsed seconds
Timing for main: time 2005-08-28_15:21:00 on domain   1:    0.07126 elapsed seconds
Timing for main: time 2005-08-28_15:24:00 on domain   1:    0.07645 elapsed seconds
Timing for main: time 2005-08-28_15:27:00 on domain   1:    0.07215 elapsed seconds
Timing for main: time 2005-08-28_15:30:00 on domain   1:    0.14198 elapsed seconds
Timing for main: time 2005-08-28_15:33:00 on domain   1:    0.12307 elapsed seconds
Timing for main: time 2005-08-28_15:36:00 on domain   1:    0.07596 elapsed seconds
Timing for main: time 2005-08-28_15:39:00 on domain   1:    0.05287 elapsed seconds
Timing for main: time 2005-08-28_15:42:00 on domain   1:    0.05431 elapsed seconds
Timing for main: time 2005-08-28_15:45:00 on domain   1:    0.05652 elapsed seconds
Timing for main: time 2005-08-28_15:48:00 on domain   1:    0.06079 elapsed seconds
Timing for main: time 2005-08-28_15:51:00 on domain   1:    0.08400 elapsed seconds
Timing for main: time 2005-08-28_15:54:00 on domain   1:    0.07466 elapsed seconds
Timing for main: time 2005-08-28_15:57:00 on domain   1:    0.06999 elapsed seconds
Timing for main: time 2005-08-28_16:00:00 on domain   1:    0.07558 elapsed seconds
Timing for main: time 2005-08-28_16:03:00 on domain   1:    0.11965 elapsed seconds
Timing for main: time 2005-08-28_16:06:00 on domain   1:    0.04661 elapsed seconds
Timing for main: time 2005-08-28_16:09:00 on domain   1:    0.04363 elapsed seconds
Timing for main: time 2005-08-28_16:12:00 on domain   1:    0.04666 elapsed seconds
Timing for main: time 2005-08-28_16:15:00 on domain   1:    0.05022 elapsed seconds
Timing for main: time 2005-08-28_16:18:00 on domain   1:    0.06059 elapsed seconds
Timing for main: time 2005-08-28_16:21:00 on domain   1:    0.06209 elapsed seconds
Timing for main: time 2005-08-28_16:24:00 on domain   1:    0.07301 elapsed seconds
Timing for main: time 2005-08-28_16:27:00 on domain   1:    0.05221 elapsed seconds
Timing for main: time 2005-08-28_16:30:00 on domain   1:    0.05606 elapsed seconds
Timing for main: time 2005-08-28_16:33:00 on domain   1:    0.09312 elapsed seconds
Timing for main: time 2005-08-28_16:36:00 on domain   1:    0.05782 elapsed seconds
Timing for main: time 2005-08-28_16:39:00 on domain   1:    0.05641 elapsed seconds
Timing for main: time 2005-08-28_16:42:00 on domain   1:    0.05963 elapsed seconds
Timing for main: time 2005-08-28_16:45:00 on domain   1:    0.06035 elapsed seconds
Timing for main: time 2005-08-28_16:48:00 on domain   1:    0.06549 elapsed seconds
Timing for main: time 2005-08-28_16:51:00 on domain   1:    0.06139 elapsed seconds
Timing for main: time 2005-08-28_16:54:00 on domain   1:    0.06159 elapsed seconds
Timing for main: time 2005-08-28_16:57:00 on domain   1:    0.05335 elapsed seconds
Timing for main: time 2005-08-28_17:00:00 on domain   1:    0.07052 elapsed seconds
Timing for main: time 2005-08-28_17:03:00 on domain   1:    0.09569 elapsed seconds
Timing for main: time 2005-08-28_17:06:00 on domain   1:    0.24376 elapsed seconds
Timing for main: time 2005-08-28_17:09:00 on domain   1:    0.05295 elapsed seconds
Timing for main: time 2005-08-28_17:12:00 on domain   1:    0.05294 elapsed seconds
Timing for main: time 2005-08-28_17:15:00 on domain   1:    0.05170 elapsed seconds
Timing for main: time 2005-08-28_17:18:00 on domain   1:    0.05490 elapsed seconds
Timing for main: time 2005-08-28_17:21:00 on domain   1:    0.05063 elapsed seconds
Timing for main: time 2005-08-28_17:24:00 on domain   1:    0.05362 elapsed seconds
Timing for main: time 2005-08-28_17:27:00 on domain   1:    0.05205 elapsed seconds
Timing for main: time 2005-08-28_17:30:00 on domain   1:    0.05404 elapsed seconds
Timing for main: time 2005-08-28_17:33:00 on domain   1:    0.09870 elapsed seconds
Timing for main: time 2005-08-28_17:36:00 on domain   1:    0.05390 elapsed seconds
Timing for main: time 2005-08-28_17:39:00 on domain   1:    0.05214 elapsed seconds
Timing for main: time 2005-08-28_17:42:00 on domain   1:    0.05420 elapsed seconds
Timing for main: time 2005-08-28_17:45:00 on domain   1:    0.05252 elapsed seconds
Timing for main: time 2005-08-28_17:48:00 on domain   1:    0.05433 elapsed seconds
Timing for main: time 2005-08-28_17:51:00 on domain   1:    0.05143 elapsed seconds
Timing for main: time 2005-08-28_17:54:00 on domain   1:    0.05577 elapsed seconds
Timing for main: time 2005-08-28_17:57:00 on domain   1:    0.05165 elapsed seconds
Timing for main: time 2005-08-28_18:00:00 on domain   1:    0.05437 elapsed seconds
Timing for Writing wrfout_d01_2005-08-28_18:00:00 for domain        1:    0.02369 elapsed seconds
Input data processed for aux input   4 for domain   1
Timing for processing lateral boundary for domain        1:    0.00547 elapsed seconds
Timing for main: time 2005-08-28_18:03:00 on domain   1:    0.13383 elapsed seconds
Timing for main: time 2005-08-28_18:06:00 on domain   1:    0.06431 elapsed seconds
Timing for main: time 2005-08-28_18:09:00 on domain   1:    0.06363 elapsed seconds
Timing for main: time 2005-08-28_18:12:00 on domain   1:    0.06412 elapsed seconds
Timing for main: time 2005-08-28_18:15:00 on domain   1:    0.05991 elapsed seconds
Timing for main: time 2005-08-28_18:18:00 on domain   1:    0.05396 elapsed seconds
Timing for main: time 2005-08-28_18:21:00 on domain   1:    0.05382 elapsed seconds
Timing for main: time 2005-08-28_18:24:00 on domain   1:    0.05508 elapsed seconds
Timing for main: time 2005-08-28_18:27:00 on domain   1:    0.05146 elapsed seconds
Timing for main: time 2005-08-28_18:30:00 on domain   1:    0.05404 elapsed seconds
Timing for main: time 2005-08-28_18:33:00 on domain   1:    0.10060 elapsed seconds
Timing for main: time 2005-08-28_18:36:00 on domain   1:    0.05365 elapsed seconds
Timing for main: time 2005-08-28_18:39:00 on domain   1:    0.05315 elapsed seconds
Timing for main: time 2005-08-28_18:42:00 on domain   1:    0.05371 elapsed seconds
Timing for main: time 2005-08-28_18:45:00 on domain   1:    0.17102 elapsed seconds
Timing for main: time 2005-08-28_18:48:00 on domain   1:    0.12660 elapsed seconds
Timing for main: time 2005-08-28_18:51:00 on domain   1:    0.05984 elapsed seconds
Timing for main: time 2005-08-28_18:54:00 on domain   1:    0.06435 elapsed seconds
Timing for main: time 2005-08-28_18:57:00 on domain   1:    0.06287 elapsed seconds
Timing for main: time 2005-08-28_19:00:00 on domain   1:    0.06543 elapsed seconds
Timing for main: time 2005-08-28_19:03:00 on domain   1:    0.09895 elapsed seconds
Timing for main: time 2005-08-28_19:06:00 on domain   1:    0.06036 elapsed seconds
Timing for main: time 2005-08-28_19:09:00 on domain   1:    0.05431 elapsed seconds
Timing for main: time 2005-08-28_19:12:00 on domain   1:    0.05822 elapsed seconds
Timing for main: time 2005-08-28_19:15:00 on domain   1:    0.05579 elapsed seconds
Timing for main: time 2005-08-28_19:18:00 on domain   1:    0.05559 elapsed seconds
Timing for main: time 2005-08-28_19:21:00 on domain   1:    0.05814 elapsed seconds
Timing for main: time 2005-08-28_19:24:00 on domain   1:    0.07792 elapsed seconds
Timing for main: time 2005-08-28_19:27:00 on domain   1:    0.07597 elapsed seconds
Timing for main: time 2005-08-28_19:30:00 on domain   1:    0.06267 elapsed seconds
Timing for main: time 2005-08-28_19:33:00 on domain   1:    0.09369 elapsed seconds
Timing for main: time 2005-08-28_19:36:00 on domain   1:    0.05715 elapsed seconds
Timing for main: time 2005-08-28_19:39:00 on domain   1:    0.05721 elapsed seconds
Timing for main: time 2005-08-28_19:42:00 on domain   1:    0.07490 elapsed seconds
Timing for main: time 2005-08-28_19:45:00 on domain   1:    0.07050 elapsed seconds
Timing for main: time 2005-08-28_19:48:00 on domain   1:    0.06834 elapsed seconds
Timing for main: time 2005-08-28_19:51:00 on domain   1:    0.05383 elapsed seconds
Timing for main: time 2005-08-28_19:54:00 on domain   1:    0.05381 elapsed seconds
Timing for main: time 2005-08-28_19:57:00 on domain   1:    0.05936 elapsed seconds
Timing for main: time 2005-08-28_20:00:00 on domain   1:    0.06385 elapsed seconds
Timing for main: time 2005-08-28_20:03:00 on domain   1:    0.09940 elapsed seconds
Timing for main: time 2005-08-28_20:06:00 on domain   1:    0.07739 elapsed seconds
Timing for main: time 2005-08-28_20:09:00 on domain   1:    0.05450 elapsed seconds
Timing for main: time 2005-08-28_20:12:00 on domain   1:    0.05698 elapsed seconds
Timing for main: time 2005-08-28_20:15:00 on domain   1:    0.06421 elapsed seconds
Timing for main: time 2005-08-28_20:18:00 on domain   1:    0.25207 elapsed seconds
Timing for main: time 2005-08-28_20:21:00 on domain   1:    0.06239 elapsed seconds
Timing for main: time 2005-08-28_20:24:00 on domain   1:    0.06319 elapsed seconds
Timing for main: time 2005-08-28_20:27:00 on domain   1:    0.05172 elapsed seconds
Timing for main: time 2005-08-28_20:30:00 on domain   1:    0.05845 elapsed seconds
Timing for main: time 2005-08-28_20:33:00 on domain   1:    0.10470 elapsed seconds
Timing for main: time 2005-08-28_20:36:00 on domain   1:    0.06371 elapsed seconds
Timing for main: time 2005-08-28_20:39:00 on domain   1:    0.06431 elapsed seconds
Timing for main: time 2005-08-28_20:42:00 on domain   1:    0.06317 elapsed seconds
Timing for main: time 2005-08-28_20:45:00 on domain   1:    0.06133 elapsed seconds
Timing for main: time 2005-08-28_20:48:00 on domain   1:    0.06244 elapsed seconds
Timing for main: time 2005-08-28_20:51:00 on domain   1:    0.06007 elapsed seconds
Timing for main: time 2005-08-28_20:54:00 on domain   1:    0.05844 elapsed seconds
Timing for main: time 2005-08-28_20:57:00 on domain   1:    0.05461 elapsed seconds
Timing for main: time 2005-08-28_21:00:00 on domain   1:    0.08550 elapsed seconds
Timing for Writing wrfout_d01_2005-08-28_21:00:00 for domain        1:    0.02339 elapsed seconds
Timing for main: time 2005-08-28_21:03:00 on domain   1:    0.12355 elapsed seconds
Timing for main: time 2005-08-28_21:06:00 on domain   1:    0.05538 elapsed seconds
Timing for main: time 2005-08-28_21:09:00 on domain   1:    0.05329 elapsed seconds
Timing for main: time 2005-08-28_21:12:00 on domain   1:    0.05472 elapsed seconds
Timing for main: time 2005-08-28_21:15:00 on domain   1:    0.05344 elapsed seconds
Timing for main: time 2005-08-28_21:18:00 on domain   1:    0.05537 elapsed seconds
Timing for main: time 2005-08-28_21:21:00 on domain   1:    0.05293 elapsed seconds
Timing for main: time 2005-08-28_21:24:00 on domain   1:    0.05342 elapsed seconds
Timing for main: time 2005-08-28_21:27:00 on domain   1:    0.05503 elapsed seconds
Timing for main: time 2005-08-28_21:30:00 on domain   1:    0.05440 elapsed seconds
Timing for main: time 2005-08-28_21:33:00 on domain   1:    0.10023 elapsed seconds
Timing for main: time 2005-08-28_21:36:00 on domain   1:    0.06024 elapsed seconds
Timing for main: time 2005-08-28_21:39:00 on domain   1:    0.05760 elapsed seconds
Timing for main: time 2005-08-28_21:42:00 on domain   1:    0.05951 elapsed seconds
Timing for main: time 2005-08-28_21:45:00 on domain   1:    0.05393 elapsed seconds
Timing for main: time 2005-08-28_21:48:00 on domain   1:    0.05415 elapsed seconds
Timing for main: time 2005-08-28_21:51:00 on domain   1:    0.06066 elapsed seconds
Timing for main: time 2005-08-28_21:54:00 on domain   1:    0.25604 elapsed seconds
Timing for main: time 2005-08-28_21:57:00 on domain   1:    0.07445 elapsed seconds
Timing for main: time 2005-08-28_22:00:00 on domain   1:    0.07500 elapsed seconds
Timing for main: time 2005-08-28_22:03:00 on domain   1:    0.12942 elapsed seconds
Timing for main: time 2005-08-28_22:06:00 on domain   1:    0.07098 elapsed seconds
Timing for main: time 2005-08-28_22:09:00 on domain   1:    0.05710 elapsed seconds
Timing for main: time 2005-08-28_22:12:00 on domain   1:    0.05529 elapsed seconds
Timing for main: time 2005-08-28_22:15:00 on domain   1:    0.05479 elapsed seconds
Timing for main: time 2005-08-28_22:18:00 on domain   1:    0.05967 elapsed seconds
Timing for main: time 2005-08-28_22:21:00 on domain   1:    0.05251 elapsed seconds
Timing for main: time 2005-08-28_22:24:00 on domain   1:    0.05733 elapsed seconds
Timing for main: time 2005-08-28_22:27:00 on domain   1:    0.05290 elapsed seconds
Timing for main: time 2005-08-28_22:30:00 on domain   1:    0.05408 elapsed seconds
Timing for main: time 2005-08-28_22:33:00 on domain   1:    0.09921 elapsed seconds
Timing for main: time 2005-08-28_22:36:00 on domain   1:    0.05562 elapsed seconds
Timing for main: time 2005-08-28_22:39:00 on domain   1:    0.05243 elapsed seconds
Timing for main: time 2005-08-28_22:42:00 on domain   1:    0.05577 elapsed seconds
Timing for main: time 2005-08-28_22:45:00 on domain   1:    0.05349 elapsed seconds
Timing for main: time 2005-08-28_22:48:00 on domain   1:    0.05492 elapsed seconds
Timing for main: time 2005-08-28_22:51:00 on domain   1:    0.06164 elapsed seconds
Timing for main: time 2005-08-28_22:54:00 on domain   1:    0.06661 elapsed seconds
Timing for main: time 2005-08-28_22:57:00 on domain   1:    0.06329 elapsed seconds
Timing for main: time 2005-08-28_23:00:00 on domain   1:    0.05937 elapsed seconds
Timing for main: time 2005-08-28_23:03:00 on domain   1:    0.10391 elapsed seconds
Timing for main: time 2005-08-28_23:06:00 on domain   1:    0.05881 elapsed seconds
Timing for main: time 2005-08-28_23:09:00 on domain   1:    0.05638 elapsed seconds
Timing for main: time 2005-08-28_23:12:00 on domain   1:    0.05863 elapsed seconds
Timing for main: time 2005-08-28_23:15:00 on domain   1:    0.05703 elapsed seconds
Timing for main: time 2005-08-28_23:18:00 on domain   1:    0.05949 elapsed seconds
Timing for main: time 2005-08-28_23:21:00 on domain   1:    0.05575 elapsed seconds
Timing for main: time 2005-08-28_23:24:00 on domain   1:    0.05627 elapsed seconds
Timing for main: time 2005-08-28_23:27:00 on domain   1:    0.24945 elapsed seconds
Timing for main: time 2005-08-28_23:30:00 on domain   1:    0.05864 elapsed seconds
Timing for main: time 2005-08-28_23:33:00 on domain   1:    0.11146 elapsed seconds
Timing for main: time 2005-08-28_23:36:00 on domain   1:    0.06399 elapsed seconds
Timing for main: time 2005-08-28_23:39:00 on domain   1:    0.06436 elapsed seconds
Timing for main: time 2005-08-28_23:42:00 on domain   1:    0.06550 elapsed seconds
Timing for main: time 2005-08-28_23:45:00 on domain   1:    0.05991 elapsed seconds
Timing for main: time 2005-08-28_23:48:00 on domain   1:    0.05671 elapsed seconds
Timing for main: time 2005-08-28_23:51:00 on domain   1:    0.05481 elapsed seconds
Timing for main: time 2005-08-28_23:54:00 on domain   1:    0.05943 elapsed seconds
Timing for main: time 2005-08-28_23:57:00 on domain   1:    0.05762 elapsed seconds
Timing for main: time 2005-08-29_00:00:00 on domain   1:    0.06315 elapsed seconds
Timing for Writing wrfout_d01_2005-08-29_00:00:00 for domain        1:    0.02586 elapsed seconds
wrf: SUCCESS COMPLETE WRF
